
     RDKit          3D

 24 25  0  0  0  0  0  0  0  0999 V2000
   20.4626   52.1907   37.1663 O   0  0  0  0  0  0  0  0  0  0  0  0
   19.8434   52.0310   36.2043 C   0  0  0  0  0  0  0  0  0  0  0  0
   19.1218   50.7294   35.4883 C   0  0  0  0  0  0  0  0  0  0  0  0
   20.1394   49.8046   35.1514 P   0  0  0  0  0  5  0  0  0  0  0  0
   20.8143   49.4963   36.2037 O   0  0  0  0  0  1  0  0  0  0  0  0
   21.0153   50.1192   34.3514 O   0  0  0  0  0  0  0  0  0  0  0  0
   19.3880   49.2152   34.1189 O   0  0  0  0  0  0  0  0  0  0  0  0
   18.9169   52.8461   35.7789 N   0  0  0  0  0  0  0  0  0  0  0  0
   18.7573   54.0638   35.6582 C   0  0  0  0  0  0  0  0  0  0  0  0
   17.7160   55.0249   35.7183 C   0  0  0  0  0  0  0  0  0  0  0  0
   16.5385   55.3822   35.8127 C   0  0  0  0  0  0  0  0  0  0  0  0
   15.8606   55.7665   36.9566 C   0  0  0  0  0  0  0  0  0  0  0  0
   16.1230   55.4974   38.4155 C   0  0  0  0  0  0  0  0  0  0  0  0
   15.6252   56.0071   39.2800 C   0  0  0  0  0  0  0  0  0  0  0  0
   14.7334   56.9787   38.9663 C   0  0  0  0  0  0  0  0  0  0  0  0
   14.1630   57.2769   37.7397 C   0  0  0  0  0  0  0  0  0  0  0  0
   13.0724   58.0595   37.2973 O   0  0  0  0  0  0  0  0  0  0  0  0
   12.5539   59.1657   37.5954 C   0  0  0  0  0  0  0  0  0  0  0  0
   12.6496   60.1347   38.6865 C   0  0  0  0  0  0  0  0  0  0  0  0
   11.7687   61.1117   38.7984 C   0  0  0  0  0  0  0  0  0  0  0  0
   10.7541   60.9999   38.0205 C   0  0  0  0  0  0  0  0  0  0  0  0
   10.4612   60.1754   37.1372 C   0  0  0  0  0  0  0  0  0  0  0  0
   11.5300   59.4705   36.9041 C   0  0  0  0  0  0  0  0  0  0  0  0
   14.7898   56.6269   36.7047 C   0  0  0  0  0  0  0  0  0  0  0  0
  1  2  2  0
  2  3  1  0
  3  4  1  0
  4  5  1  0
  4  6  1  0
  4  7  1  0
  2  8  1  0
  8  9  1  0
  9 10  1  0
 10 11  1  0
 11 12  1  0
 12 13  2  0
 13 14  1  0
 14 15  2  0
 15 16  1  0
 16 17  1  0
 17 18  1  0
 18 19  2  0
 19 20  1  0
 20 21  2  0
 21 22  1  0
 22 23  2  0
 16 24  2  0
 24 12  1  0
 23 18  1  0
M  CHG  1   5  -1
M  END
